/*--------------------------------*- C++ -*----------------------------------*\
| =========                 |                                                 |
| \\      /  F ield         | OpenFOAM: The Open Source CFD Toolbox           |
|  \\    /   O peration     | Version:  plus                                  |
|   \\  /    A nd           | Web:      www.OpenFOAM.com                      |
|    \\/     M anipulation  |                                                 |
\*---------------------------------------------------------------------------*/
FoamFile
{
    version     2.0;
    format      ascii;
    class       volScalarField;
    object      alphat;
}
// * * * * * * * * * * * * * * * * * * * * * * * * * * * * * * * * * * * * * //

#include        "include/initialConditions"
dimensions 	[ 1 -1 -1 0 0 0 0 ];
internalField 	uniform $thermalDiff;
boundaryField
{
    #includeEtc "caseDicts/setConstraintTypes"

    lowerWall
    {
        type    compressible::alphatJayatillekeWallFunction;
        value   $internalField;
    }

    upperWall
    {
        type    compressible::alphatJayatillekeWallFunction;
        value   $internalField;
    }

    shield
    {
        type    compressible::alphatJayatillekeWallFunction;
        value   $internalField;
    }

    nozzleInlet
    {
        type zeroGradient;
    }

    shieldInlet
    {
        type zeroGradient;
    }

    shieldOutlet
    {
        type zeroGradient;
    }

    outer
    {
        type zeroGradient;
    }
}
