/*--------------------------------*- C++ -*----------------------------------*\
| =========                 |                                                 |
| \\      /  F ield         | OpenFOAM: The Open Source CFD Toolbox           |
|  \\    /   O peration     | Version:  plus                                  |
|   \\  /    A nd           | Web:      www.OpenFOAM.com                      |
|    \\/     M anipulation  |                                                 |
\*---------------------------------------------------------------------------*/
FoamFile
{
    version     2.0;
    format      ascii;
    class       dictionary;
    location    "system";
    object      fvSchemes;
}
// * * * * * * * * * * * * * * * * * * * * * * * * * * * * * * * * * * * * * //

ddtSchemes
{
    default         steadyState;
}

gradSchemes
{
    default         Gauss linear;
}

divSchemes
{
    default         Gauss linear;

    div(phi,U)      Gauss upwind;
    div(phid,p)     Gauss upwind;
    div(phi,K)      Gauss linear;
    div(phi,k)      Gauss upwind;
    div(phi,epsilon) Gauss upwind;
    div(U)          Gauss linear;
    div(((rho*nuEff)*dev2(T(grad(U))))) Gauss linear;
    div(phi,Yi_h)   Gauss upwind;
	// new 
    div(phi,T) 		Gauss upwind;
}

laplacianSchemes
{
    default        Gauss linear limited 0.333;
}

interpolationSchemes
{
    default         linear;
}

snGradSchemes
{
    default         orthogonal;
}

wallDist
{
    method meshWave;
}
// ************************************************************************* //
