/*--------------------------------*- C++ -*----------------------------------*\
| =========                 |                                                 |
| \\      /  F ield         | OpenFOAM: The Open Source CFD Toolbox           |
|  \\    /   O peration     | Version:  plus                                  |
|   \\  /    A nd           | Web:      www.OpenFOAM.com                      |
|    \\/     M anipulation  |                                                 |
\*---------------------------------------------------------------------------*/
FoamFile
{
    version     2.0;
    format      ascii;
    class       dictionary;
    location    "system";
    object      fvSolution;
}
// * * * * * * * * * * * * * * * * * * * * * * * * * * * * * * * * * * * * * //

solvers
{
    rho
    {
        solver          PCG;
        preconditioner  DIC;
        tolerance       1e-05;
        relTol          0.1;
    }

    rhoFinal
    {
        $rho;
        tolerance       1e-05;
        relTol          0;
    }

    "(U|k|epsilon|omega|h)"
    {
        solver          smoothSolver;
        smoother        symGaussSeidel;
        tolerance       1e-06;
        relTol          0.1;
    }

    p
    {
        solver          GAMG;
        tolerance       0;
        relTol          0.1;
        smoother        GaussSeidel;
    }

    pFinal
    {
        $p;
        tolerance       1e-06;
        relTol          0;
    }

    "(U|k|epsilon|omega|h)Final"
    {
        $U;
        tolerance       1e-06;
        relTol          0;
    }
/*
    "(Yi|O2|N2|H2O)"
    {
        solver          PBiCGStab;
        preconditioner  DILU;
        tolerance       1e-6;
        relTol          0;
    }

    h
    {
        $Yi;
        relTol          0.1;
    }

    hFinal
    {
        $Yi;
    }
*/
}

/*
PIMPLE
{
    transonic       no;
    nCorrectors     2;
    nNonOrthogonalCorrectors 0;
    momentumPredictor yes;
}

relaxationFactors
{
    equations
    {
        ".*Final"       1;
    }
}
*/

SIMPLE
{
    nNonOrthogonalCorrectors 0;
    pMinFactor      0.1;
    pMaxFactor      2;
    transonic       yes;
    consistent      yes;

    residualControl
    {
        p               1e-3;
        U               1e-4;
        e               1e-3;

        // possibly check turbulence fields
        "(k|epsilon|omega)" 1e-3;
    }
}



relaxationFactors
{
    fields
    {
        p               0.3;
    }
    equations
    {
        p               0.3;
        U               0.3;
        e               0.3;
        k               0.3;
        epsilon         0.3;
    }
}
// ************************************************************************* //
