/*--------------------------------*- C++ -*----------------------------------*\
| =========                 |                                                 |
| \\      /  F ield         | OpenFOAM: The Open Source CFD Toolbox           |
|  \\    /   O peration     | Version:  plus                                  |
|   \\  /    A nd           | Web:      www.OpenFOAM.com                      |
|    \\/     M anipulation  |                                                 |
\*---------------------------------------------------------------------------*/
FoamFile
{
    version     2.0;
    format      ascii;
    class       dictionary;
    location    "system";
    object      controlDict;
}
// * * * * * * * * * * * * * * * * * * * * * * * * * * * * * * * * * * * * * //

application     sprayFoam;

startFrom       latestTime;

startTime       0;

stopAt          endTime;

endTime         1.;

deltaT          2.5e-06;

writeControl    adjustableRunTime;

writeInterval   5e-3;

purgeWrite      0;

writeFormat     ascii;

writePrecision  10;

writeCompression off;

timeFormat      general;

timePrecision   10;

adjustTimeStep  yes;

writeLagrangian 1;

maxCo           1.;

runTimeModifiable yes;

// ************************************************************************* //
libs ("libOpenFOAM.so" "libgroovyBC.so");

// *************************************************************************//

functions
{
	#includeFunc 	vorticity;
}